@<TRIPOS>MOLECULE
ZINC01786904
   36    35     0     0     0
SMALL
USER_CHARGES
tridec-12-ynoic acid
@<TRIPOS>ATOM
      1 C1          8.8806   14.1222   -0.0069 C.1       1 <0>        -0.2166
      2 C2          8.8351   12.9491   -0.0128 C.1       1 <0>        -0.1850
      3 C3          8.7780   11.4783   -0.0201 C.3       1 <0>        -0.0158
      4 C4          7.3169   11.0245   -0.0086 C.3       1 <0>        -0.1150
      5 C5          7.2575    9.4957   -0.0162 C.3       1 <0>        -0.1209
      6 C6          5.7964    9.0420   -0.0047 C.3       1 <0>        -0.1202
      7 C7          5.7370    7.5131   -0.0124 C.3       1 <0>        -0.1205
      8 C8          4.2759    7.0594   -0.0009 C.3       1 <0>        -0.1196
      9 C9          4.2166    5.5306   -0.0085 C.3       1 <0>        -0.1194
     10 C10         2.7554    5.0768    0.0030 C.3       1 <0>        -0.1200
     11 C11         2.6961    3.5480   -0.0046 C.3       1 <0>        -0.0989
     12 C12         1.2350    3.0943    0.0069 C.3       1 <0>        -0.1584
     13 C13         1.1765    1.5884   -0.0006 C.2       1 <0>         0.4569
     14 O1          2.1986    0.9442   -0.0139 O.co2     1 <0>        -0.6426
     15 H1          8.9213   15.1714   -0.0016 H         1 <0>         0.2159
     16 H2          9.2858   11.0905    0.8630 H         1 <0>         0.0863
     17 H3          9.2688   11.1001   -0.9169 H         1 <0>         0.0863
     18 H4          6.8090   11.4123   -0.8917 H         1 <0>         0.0652
     19 H5          6.8260   11.4027    0.8882 H         1 <0>         0.0652
     20 H6          7.7653    9.1080    0.8669 H         1 <0>         0.0638
     21 H7          7.7483    9.1175   -0.9130 H         1 <0>         0.0638
     22 H8          5.2886    9.4297   -0.8878 H         1 <0>         0.0607
     23 H9          5.3056    9.4201    0.8920 H         1 <0>         0.0607
     24 H10         6.2449    7.1254    0.8707 H         1 <0>         0.0606
     25 H11         6.2279    7.1350   -0.9091 H         1 <0>         0.0606
     26 H12         3.7681    7.4471   -0.8840 H         1 <0>         0.0589
     27 H13         3.7851    7.4376    0.8959 H         1 <0>         0.0589
     28 H14         4.7244    5.1428    0.8746 H         1 <0>         0.0597
     29 H15         4.7074    5.1524   -0.9053 H         1 <0>         0.0597
     30 H16         2.2476    5.4646   -0.8801 H         1 <0>         0.0554
     31 H17         2.2646    5.4550    0.8998 H         1 <0>         0.0554
     32 H18         3.2039    3.1603    0.8785 H         1 <0>         0.0584
     33 H19         3.1869    3.1698   -0.9014 H         1 <0>         0.0584
     34 H20         0.7272    3.4820   -0.8762 H         1 <0>         0.0612
     35 H21         0.7441    3.4725    0.9036 H         1 <0>         0.0612
     36 O2         -0.0110    0.9628    0.0073 O.co2     1 <0>        -0.7801
@<TRIPOS>BOND
     1    1    2 3
     2    1   15 1
     3    2    3 1
     4    3    4 1
     5    3   16 1
     6    3   17 1
     7    4    5 1
     8    4   18 1
     9    4   19 1
    10    5    6 1
    11    5   20 1
    12    5   21 1
    13    6    7 1
    14    6   22 1
    15    6   23 1
    16    7    8 1
    17    7   24 1
    18    7   25 1
    19    8    9 1
    20    8   26 1
    21    8   27 1
    22    9   10 1
    23    9   28 1
    24    9   29 1
    25   10   11 1
    26   10   30 1
    27   10   31 1
    28   11   12 1
    29   11   32 1
    30   11   33 1
    31   12   13 1
    32   12   34 1
    33   12   35 1
    34   13   14 2
    35   13   36 1
